/batch
/config,noeldb,1     ! force off writing results to database
*get,_wallstrt,active,,time,wall
! ANSYS input file written by Workbench version 2019 R3
! File used for geometry attach: /storage/home/jac7175/work/Part1.STEP
/title,Monopole_Test--Harmonic Acoustics (A5)
*DIM,_wb_ProjectScratch_dir,string,248
_wb_ProjectScratch_dir(1) = '/gpfs/scratch/jmp579/ansys_test/Monopole_Test_files/dp0/SYS/MECH/'
*DIM,_wb_SolverFiles_dir,string,248
_wb_SolverFiles_dir(1) = '/gpfs/scratch/jmp579/ansys_test/Monopole_Test_files/dp0/SYS/MECH/'
*DIM,_wb_userfiles_dir,string,248
_wb_userfiles_dir(1) = '/gpfs/scratch/jmp579/ansys_test/Monopole_Test_files/user_files/'
/com,--- Data in consistent MKS units. See Solving Units in the help system for more information.
/units,MKS
/nopr
/wb,file,start              !  signify a WB generated input file
/prep7
! Turn off shape checking because checks already performed inside WB mesher.
! See help system for more information.
SHPP,OFF,,NOWARN
/nolist
etcon,set             ! allow ANSYS to choose best KEYOP's for 180x elements
/com,*********** Nodes for the whole assembly ***********
nblock,3,,4007
(1i9,3e20.9e3)
        1     1.555301435E-19    -2.540000000E-03     0.000000000E+00
        2     1.555301435E-19     2.540000000E-03     0.000000000E+00
        3     4.180702593E-04    -2.505357711E-03     0.000000000E+00
        4     8.247366518E-04    -2.402375794E-03     0.000000000E+00
        5     1.208906378E-03    -2.233863328E-03     0.000000000E+00
        6     1.560100290E-03    -2.004416894E-03     0.000000000E+00
        7     1.868738733E-03    -1.720295192E-03     0.000000000E+00
        8     2.126402855E-03    -1.389248322E-03     0.000000000E+00
        9     2.326064250E-03    -1.020306379E-03     0.000000000E+00
       10     2.462276675E-03    -6.235331373E-04     0.000000000E+00
       11     2.531324612E-03    -2.097515375E-04     0.000000000E+00
       12     2.531324612E-03     2.097515375E-04     0.000000000E+00
       13     2.462276675E-03     6.235331373E-04     0.000000000E+00
       14     2.326064250E-03     1.020306379E-03     0.000000000E+00
       15     2.126402855E-03     1.389248322E-03     0.000000000E+00
       16     1.868738733E-03     1.720295192E-03     0.000000000E+00
       17     1.560100290E-03     2.004416894E-03     0.000000000E+00
       18     1.208906378E-03     2.233863328E-03     0.000000000E+00
       19     8.247366518E-04     2.402375794E-03     0.000000000E+00
       20     4.180702593E-04     2.505357711E-03     0.000000000E+00
! ... 3624 like lines cut
/wb,elem,start            !  set before creation of elements
/com,*********** Elements for Body 1 "Part1-FreeParts|NONE" ***********
et,1,221
r,1,2.e-005,101325.
keyo,1,2,1          ! uncoupled acoustic element without FSI
eblock,19,solid,,2066
(19i9)
        1        1        1        1        0        0        0        0       10        0        1      422      442      578      472     2939     3137     2957     2946
     3134     3325
        1        1        1        1        0        0        0        0       10        0        2      422      578      442      567     2957     3137     2939     2956
     3640     3136
        1        1        1        1        0        0        0        0       10        0        3      415      442      578      567     2819     3137     2827     2826
     3136     3640
        1        1        1        1        0        0        0        0       10        0        4      443      578      499      561     3142     3467     3139     3141
     3635     3466
        1        1        1        1        0        0        0        0       10        0        5      455      499      578      561     3216     3467     3221     3220
     3466     3635
        1        1        1        1        0        0        0        0       10        0        6      455      578      520      561     3221     3530     3217     3220
     3635     3529
        1        1        1        1        0        0        0        0       10        0        7      443      520      578      561     3140     3530     3142     3141
     3529     3635
        1        1        1        1        0        0        0        0       10        0        8      442      443      578      472     3132     3142     3137     3134
     3138     3325
        1        1        1        1        0        0        0        0       10        0        9      415      578      442      443     2827     3137     2819     2820
     3142     3132
        1        1        1        1        0        0        0        0       10        0       10      422      544      578      567     2953     3620     2957     2956
     3619     3640
! ... 4113 like lines cut
!Material Id = {5DF502DA-FE67-2251-31C9-1E5F31C91E5F}
/wb,elem,end               !  done creating elements
/com,*********** Send User Defined Coordinate System(s) ***********
csys,0
toffst,273.15,  ! Temperature offset from absolute zero
/com,*********** Set Reference Temperature ***********
tref,22.
/wb,mat,start              !  starting to send materials
/com,*********** Send Materials ***********
MP,MURX,1,1,
MP,DENS,1,1.225,	! kg m^-3
MP,SONC,1,346.25,	! m s^-1
MP,VISC,1,1.7894e-05,	! Pa s
MP,KXX,1,0.0242,	! W m^-1 C^-1
MP,C,1,1006.43,	! J kg^-1 C^-1

/wb,mat,end                !  done sending materials
!************************* Model Summary ********************
!Part1-FreeParts|NONE,	Air,	matid,	1
!************************* End Model Summary ********************
! get the diagonal of the bounding box. Needed later for other things
*get,_xmin,node,,mnloc,x
*get,_ymin,node,,mnloc,y
*get,_zmin,node,,mnloc,z
*get,_xmax,node,,mxloc,x
*get,_ymax,node,,mxloc,y
*get,_zmax,node,,mxloc,z
_ASMDIAG=(_xmax-_xmin)*(_xmax-_xmin)+(_ymax-_ymin)*(_ymax-_ymin)+(_zmax-_zmin)*(_zmax-_zmin)
_ASMDIAG=SQRT(_ASMDIAG)
/wb,contact,start          !  starting to send contact
/wb,contact,end            !  done creating contacts
/golist
/wb,load,start             !  starting to send loads

/com,*********** Create Radiation Boundary ***********
CMBLOCK,_CMACOUSTICINF31,NODE,     1570
(8i10)
         1         2         3         4         5         6         7         8
         9        10        11        12        13        14        15        16
        17        18        19        20        21        22        23        24
        25        26        27        28        29        30        31        32
        33        34        35        36        37        38        57        58
        59        60        61        62        63        64        65        66
        67        68        69        70        71        72        73        74
        75        76        77        78        79        80        81        82
        83        84        85        86        87        88        89        90
        91        92        93        94        95        96        97        98
        99       100       101       102       103       104       105       106
       107       108       109       110       111       112       113       114
       115       116       117       118       119       120       121       122
       123       124       125       126       127       128       129       130
       131       132       133       134       135       136       137       138
       139       140       141       142       143       144       145       146
       147       148       149       150       151       152       153       154
       155       156       157       158       159       160       161       162
       163       164       165       166       167       168       169       170
       171       172       173       174       175       176       177       178
! ... 177 like lines cut
cmsel,s,_CMACOUSTICINF31
sf,_CMAcousticINF31,inf,
allsel,all


/com,*********** Begin Program Controlled Acoustic Far-field Radiation Surface ***********

esel,s,type,,1
CMBLOCK,_CM_EQV_SRC_SURFACE63,NODE,     1570
(8i10)
         1         2         3         4         5         6         7         8
         9        10        11        12        13        14        15        16
        17        18        19        20        21        22        23        24
        25        26        27        28        29        30        31        32
        33        34        35        36        37        38        57        58
        59        60        61        62        63        64        65        66
        67        68        69        70        71        72        73        74
        75        76        77        78        79        80        81        82
        83        84        85        86        87        88        89        90
        91        92        93        94        95        96        97        98
        99       100       101       102       103       104       105       106
       107       108       109       110       111       112       113       114
       115       116       117       118       119       120       121       122
       123       124       125       126       127       128       129       130
       131       132       133       134       135       136       137       138
       139       140       141       142       143       144       145       146
       147       148       149       150       151       152       153       154
       155       156       157       158       159       160       161       162
       163       164       165       166       167       168       169       170
       171       172       173       174       175       176       177       178
! ... 177 like lines cut
cmsel,s,_CM_EQV_SRC_SURFACE63
sf,_CM_EQV_SRC_SURFACE63,mxwf,
allsel,all


/com,*********** End Program Controlled Acoustic Far-field Radiation Surface ***********


/com,*********** Create Surface Velocity ***********
CMBLOCK,_CMACOUSTICSURFVELO33,NODE,       86
(8i10)
        39        40        41        42        43        44        45        46
        47        48        49        50        51        52        53        54
        55        56       579       580       581       582       583       867
       868       869       870       875       876       877       878       879
       880       881       887       888       889       890       891       892
       897       898       899       900       901       907       908       909
       910       911       912       917       918       919       920       921
       925       926       927       928       929       930       931       936
       937       941       942       943       949       950       959       963
       964       965       966       967       972       973       978       982
       983       984       989       990       998       999
cmsel,s,_CMACOUSTICSURFVELO33
sf,_CMAcousticSURFVELO33,shld,0.01,0
allsel,all

/gst,on,on
fini
*get,_numnode,node,0,count
*get,_numelem,elem,0,count
*get, _MAXELEMNUM, elem, 0, NUM, MAX
*get, _MAXNODENUM, node, 0, NUM, MAX
*get, _MAXELEMTYPE, etyp, 0, NUM, MAX
*get, _MAXREALCONST, real, 0, NUM, MAX
/go
/wb,load,end               !  done creating loads
/com,--- Number of total nodes = %_numnode%
/com,--- Number of contact elements = 0
/com,--- Number of spring elements = 0
/com,--- Number of bearing elements = 0
/com,--- Number of solid elements = 2066
/com,--- Number of condensed parts = 0
/com,--- Number of total elements = %_numelem%
*get,_wallbsol,active,,time,wall
/solu
antype,harm
hropt,auto
thexpand,off     ! ignore thermal strains
kbc,1
harfrq,150.000000,155.000000
nsub,3
asol,scat,off
outres,erase
outres,all,none
outres,nsol,all
outres,eangl,all
outres,etmp,all
outres,veng,all
/nopr
esel,s,mat,,1
cm,_elmisc,elem
esel,all
/gopr
outres,misc,all,_elmisc
! *********** WB SOLVE COMMAND ***********
! check interactive state
*get,ANSINTER_,active,,int
*if,ANSINTER_,ne,0,then
/eof
*endif
solve
/com *************** Write FE CONNECTORS ********* 
CEWRITE,file,ce,,INTE
fini
/nopr
*get,_numnode,node,0,count
*get,_numelem,elem,0,count
*get, _MAXELEMNUM, elem, 0, NUM, MAX
*get, _MAXNODENUM, node, 0, NUM, MAX,,,INTERNAL
*get, _MAXELEMTYPE, etyp, 0, NUM, MAX
*get, _MAXREALCONST, real, 0, NUM, MAX
/gopr
*get,_wallasol,active,,time,wall
/post1
xmlo,ENCODING,ISO-8859-1
xmlo,parm
/xml,parm,xml
fini
/gopr
*get,_walldone,active,,time,wall
_preptime=(_wallbsol-_wallstrt)*3600
_solvtime=(_wallasol-_wallbsol)*3600
_posttime=(_walldone-_wallasol)*3600
_totaltim=(_walldone-_wallstrt)*3600
*get,_dlbratio,active,0,solu,dlbr
*get,_combtime,active,0,solu,comb
/com,--- Number of total nodes = %_numnode%
/com,--- Number of total elements = %_numelem%
/com,--- Element load balance ratio = %_dlbratio%
/com,--- Time to combine distributed files = %_combtime%
/wb,file,end               ! done with WB generated input
